Version 4
SHEET 1 2520 680
WIRE -160 -80 -464 -80
WIRE -464 -16 -464 -80
WIRE 224 -16 -16 -16
WIRE 448 -16 224 -16
WIRE 528 -16 448 -16
WIRE 864 -16 528 -16
WIRE 864 32 864 -16
WIRE -16 80 -16 -16
WIRE 224 80 224 -16
WIRE 448 80 448 -16
WIRE -464 112 -464 64
WIRE -464 112 -656 112
WIRE -240 144 -464 144
WIRE 528 160 528 -16
WIRE -464 176 -464 144
WIRE -160 208 -160 -80
WIRE -16 208 -16 144
WIRE -16 208 -160 208
WIRE -240 240 -240 144
WIRE 224 240 224 144
WIRE 224 240 -240 240
WIRE 448 272 448 144
WIRE 448 272 -144 272
WIRE -656 320 -656 112
WIRE -656 320 -720 320
WIRE -464 320 -464 256
WIRE -464 320 -656 320
WIRE -16 320 -16 208
WIRE 224 320 224 240
WIRE 448 320 448 272
WIRE -720 352 -720 320
WIRE -144 352 -144 272
WIRE -144 352 -464 352
WIRE -464 368 -464 352
WIRE -16 448 -16 384
WIRE 224 448 224 384
WIRE 224 448 -16 448
WIRE 448 448 448 384
WIRE 448 448 224 448
WIRE 528 448 528 224
WIRE 528 448 448 448
WIRE 864 448 864 112
WIRE 864 448 528 448
WIRE -656 496 -656 320
WIRE -464 496 -464 448
WIRE -464 496 -656 496
FLAG 528 -16 Vrect
FLAG 528 448 Vr
FLAG -720 352 0
SYMBOL diode 0 144 R180
WINDOW 0 24 64 Left 2
WINDOW 3 24 0 Left 2
SYMATTR InstName D1
SYMBOL diode 240 144 R180
WINDOW 0 24 64 Left 2
WINDOW 3 24 0 Left 2
SYMATTR InstName D2
SYMBOL diode 464 144 R180
WINDOW 0 24 64 Left 2
WINDOW 3 24 0 Left 2
SYMATTR InstName D3
SYMBOL diode 0 384 R180
WINDOW 0 24 64 Left 2
WINDOW 3 24 0 Left 2
SYMATTR InstName D4
SYMBOL diode 240 384 R180
WINDOW 0 24 64 Left 2
WINDOW 3 24 0 Left 2
SYMATTR InstName D5
SYMBOL diode 464 384 R180
WINDOW 0 24 64 Left 2
WINDOW 3 24 0 Left 2
SYMATTR InstName D6
SYMBOL voltage -464 -32 R0
WINDOW 123 0 0 Left 0
WINDOW 39 0 0 Left 0
SYMATTR InstName V1
SYMATTR Value SINE(0 230 50 0 0 0)
SYMBOL voltage -464 160 R0
WINDOW 123 0 0 Left 0
WINDOW 39 0 0 Left 0
SYMATTR InstName V2
SYMATTR Value SINE(0 230 50 0 0 120)
SYMBOL voltage -464 352 R0
WINDOW 123 0 0 Left 0
WINDOW 39 0 0 Left 0
SYMATTR InstName V3
SYMATTR Value SINE(0 230 50 0 0 240)
SYMBOL cap 512 160 R0
SYMATTR InstName C3
SYMATTR Value {C_antiRipple}
SYMBOL res 848 16 R0
SYMATTR InstName R1
SYMATTR Value 1k
TEXT 720 -168 Left 2 !.tran 40m
TEXT 136 -184 Left 2 !.param C_antiRipple=100u
TEXT 1120 0 Left 2 !.meas Vrect_ef RMS V(Vrect,Vr)
TEXT 1120 64 Left 2 !.meas Vrect_avg AVG V(Vrect,Vr)
